<routes>

<vType id="type0" color="255,105,180" length = "8.0" speedFactor="normc(1,0.1,0.2,2)" lcSpeedGain = "1"/>
<vType id="type1" color="255,190,180" length = "8.0" carFollowModel = "IDM" speedFactor="normc(1,0.1,0.2,2)" lcSpeedGain = "1"/>
<vType id="type2" color="22,255,255" length = "3.5" speedFactor="normc(1,0.1,0.2,2)" lcSpeedGain = "1"/>
<vType id="type3" color="22,55,255" length = "3.5" carFollowModel = "IDM" speedFactor="normc(1,0.1,0.2,2)" lcSpeedGain = "1"/>

<route id="0" edges="m3 m4 m5 m6 m7 m8 m9"/> 
<route id="1" edges="m3 m4 m5 m6 m7 m8 rout1"/> 
<route id="2" edges="rlight1 rin3 m7 m8 m9"/> 
<vehicle id="0" depart="0.08" type="type2" route="0" departLane="random"/>

<vehicle id="1" depart="0.29" type="type2" route="0" departLane="random"/>

<vehicle id="2" depart="2.87" type="type3" route="0" departLane="random"/>

<vehicle id="3" depart="3.25" type="type1" route="0" departLane="random"/>

<vehicle id="4" depart="4.23" type="type3" route="0" departLane="random"/>

<vehicle id="5" depart="4.8" type="type2" route="0" departLane="random"/>

<vehicle id="6" depart="4.86" type="type2" route="0" departLane="random"/>

<vehicle id="7" depart="6.65" type="type3" route="0" departLane="random"/>

<vehicle id="8" depart="8.58" type="type2" route="0" departLane="random"/>

<vehicle id="9" depart="9.54" type="type0" route="1" departLane="random"/>

<vehicle id="10" depart="9.56" type="type0" route="0" departLane="random"/>

<vehicle id="11" depart="10.18" type="type2" route="0" departLane="random"/>

<vehicle id="12" depart="10.36" type="type3" route="0" departLane="random"/>

<vehicle id="13" depart="11.18" type="type2" route="2" departLane="random"/>

<vehicle id="14" depart="12.58" type="type3" route="0" departLane="random"/>

<vehicle id="15" depart="12.64" type="type3" route="0" departLane="random"/>

<vehicle id="16" depart="13.18" type="type3" route="1" departLane="random"/>

<vehicle id="17" depart="14.83" type="type2" route="0" departLane="random"/>

<vehicle id="18" depart="16.19" type="type2" route="1" departLane="random"/>

<vehicle id="19" depart="18.56" type="type3" route="0" departLane="random"/>

<vehicle id="20" depart="20.51" type="type0" route="0" departLane="random"/>

<vehicle id="21" depart="20.72" type="type2" route="1" departLane="random"/>

<vehicle id="22" depart="21.84" type="type2" route="0" departLane="random"/>

<vehicle id="23" depart="21.88" type="type0" route="1" departLane="random"/>

<vehicle id="24" depart="23.28" type="type0" route="0" departLane="random"/>

<vehicle id="25" depart="23.93" type="type3" route="0" departLane="random"/>

<vehicle id="26" depart="24.36" type="type2" route="0" departLane="random"/>

<vehicle id="27" depart="24.62" type="type3" route="0" departLane="random"/>

<vehicle id="28" depart="25.82" type="type0" route="0" departLane="random"/>

<vehicle id="29" depart="27.7" type="type2" route="0" departLane="random"/>

<vehicle id="30" depart="28.86" type="type1" route="0" departLane="random"/>

<vehicle id="31" depart="29.3" type="type0" route="0" departLane="random"/>

<vehicle id="32" depart="29.32" type="type1" route="0" departLane="random"/>

<vehicle id="33" depart="29.51" type="type3" route="0" departLane="random"/>

<vehicle id="34" depart="30.32" type="type2" route="0" departLane="random"/>

<vehicle id="35" depart="30.91" type="type3" route="0" departLane="random"/>

<vehicle id="36" depart="32.19" type="type2" route="0" departLane="random"/>

<vehicle id="37" depart="32.56" type="type2" route="0" departLane="random"/>

<vehicle id="38" depart="32.69" type="type3" route="0" departLane="random"/>

<vehicle id="39" depart="33.81" type="type3" route="0" departLane="random"/>

<vehicle id="40" depart="34.36" type="type2" route="0" departLane="random"/>

<vehicle id="41" depart="34.81" type="type3" route="0" departLane="random"/>

<vehicle id="42" depart="34.86" type="type3" route="1" departLane="random"/>

<vehicle id="43" depart="37.58" type="type2" route="0" departLane="random"/>

<vehicle id="44" depart="39.06" type="type2" route="1" departLane="random"/>

<vehicle id="45" depart="40.95" type="type2" route="0" departLane="random"/>

<vehicle id="46" depart="41.19" type="type2" route="0" departLane="random"/>

<vehicle id="47" depart="41.63" type="type3" route="1" departLane="random"/>

<vehicle id="48" depart="41.95" type="type0" route="0" departLane="random"/>

<vehicle id="49" depart="42.23" type="type2" route="0" departLane="random"/>

<vehicle id="50" depart="42.27" type="type3" route="0" departLane="random"/>

<vehicle id="51" depart="43.26" type="type2" route="0" departLane="random"/>

<vehicle id="52" depart="44.56" type="type1" route="0" departLane="random"/>

<vehicle id="53" depart="44.67" type="type3" route="0" departLane="random"/>

<vehicle id="54" depart="45.67" type="type1" route="1" departLane="random"/>

<vehicle id="55" depart="46.07" type="type2" route="0" departLane="random"/>

<vehicle id="56" depart="46.38" type="type2" route="0" departLane="random"/>

<vehicle id="57" depart="46.89" type="type3" route="0" departLane="random"/>

<vehicle id="58" depart="47.37" type="type3" route="0" departLane="random"/>

<vehicle id="59" depart="47.5" type="type1" route="0" departLane="random"/>

<vehicle id="60" depart="47.78" type="type2" route="2" departLane="random"/>

<vehicle id="61" depart="48.24" type="type0" route="0" departLane="random"/>

<vehicle id="62" depart="48.27" type="type2" route="0" departLane="random"/>

<vehicle id="63" depart="48.43" type="type2" route="0" departLane="random"/>

<vehicle id="64" depart="52.83" type="type3" route="0" departLane="random"/>

<vehicle id="65" depart="53.66" type="type3" route="0" departLane="random"/>

<vehicle id="66" depart="54.63" type="type2" route="1" departLane="random"/>

<vehicle id="67" depart="54.65" type="type3" route="0" departLane="random"/>

<vehicle id="68" depart="55.2" type="type0" route="0" departLane="random"/>

<vehicle id="69" depart="55.37" type="type3" route="0" departLane="random"/>

<vehicle id="70" depart="57.32" type="type2" route="1" departLane="random"/>

<vehicle id="71" depart="58.58" type="type1" route="0" departLane="random"/>

<vehicle id="72" depart="59.79" type="type2" route="0" departLane="random"/>

<vehicle id="73" depart="59.84" type="type1" route="0" departLane="random"/>

<vehicle id="74" depart="60.38" type="type2" route="2" departLane="random"/>

<vehicle id="75" depart="60.51" type="type3" route="0" departLane="random"/>

<vehicle id="76" depart="60.75" type="type1" route="1" departLane="random"/>

<vehicle id="77" depart="60.96" type="type2" route="0" departLane="random"/>

<vehicle id="78" depart="61.9" type="type2" route="0" departLane="random"/>

<vehicle id="79" depart="62.61" type="type2" route="0" departLane="random"/>

<vehicle id="80" depart="63.27" type="type0" route="1" departLane="random"/>

<vehicle id="81" depart="63.39" type="type3" route="1" departLane="random"/>

<vehicle id="82" depart="63.63" type="type1" route="0" departLane="random"/>

<vehicle id="83" depart="64.07" type="type0" route="0" departLane="random"/>

<vehicle id="84" depart="67.17" type="type2" route="0" departLane="random"/>

<vehicle id="85" depart="67.74" type="type3" route="0" departLane="random"/>

<vehicle id="86" depart="67.98" type="type3" route="0" departLane="random"/>

<vehicle id="87" depart="69.73" type="type0" route="2" departLane="random"/>

<vehicle id="88" depart="70.84" type="type0" route="0" departLane="random"/>

<vehicle id="89" depart="71.44" type="type1" route="0" departLane="random"/>

<vehicle id="90" depart="71.83" type="type1" route="1" departLane="random"/>

<vehicle id="91" depart="73.25" type="type3" route="0" departLane="random"/>

<vehicle id="92" depart="73.93" type="type2" route="1" departLane="random"/>

<vehicle id="93" depart="74.62" type="type3" route="0" departLane="random"/>

<vehicle id="94" depart="74.65" type="type3" route="1" departLane="random"/>

<vehicle id="95" depart="74.7" type="type1" route="0" departLane="random"/>

<vehicle id="96" depart="75.28" type="type2" route="0" departLane="random"/>

<vehicle id="97" depart="75.62" type="type3" route="0" departLane="random"/>

<vehicle id="98" depart="75.62" type="type0" route="0" departLane="random"/>

<vehicle id="99" depart="77.22" type="type0" route="1" departLane="random"/>

<vehicle id="100" depart="78.16" type="type2" route="0" departLane="random"/>

<vehicle id="101" depart="78.34" type="type2" route="0" departLane="random"/>

<vehicle id="102" depart="79.1" type="type1" route="1" departLane="random"/>

<vehicle id="103" depart="79.68" type="type2" route="0" departLane="random"/>

<vehicle id="104" depart="79.9" type="type2" route="2" departLane="random"/>

<vehicle id="105" depart="80.34" type="type2" route="1" departLane="random"/>

<vehicle id="106" depart="80.37" type="type2" route="0" departLane="random"/>

<vehicle id="107" depart="81.22" type="type3" route="0" departLane="random"/>

<vehicle id="108" depart="81.77" type="type3" route="1" departLane="random"/>

<vehicle id="109" depart="82.75" type="type3" route="0" departLane="random"/>

<vehicle id="110" depart="83.08" type="type3" route="0" departLane="random"/>

<vehicle id="111" depart="83.36" type="type3" route="1" departLane="random"/>

<vehicle id="112" depart="85.2" type="type0" route="0" departLane="random"/>

<vehicle id="113" depart="85.92" type="type2" route="0" departLane="random"/>

<vehicle id="114" depart="90.68" type="type0" route="0" departLane="random"/>

<vehicle id="115" depart="91.82" type="type2" route="0" departLane="random"/>

<vehicle id="116" depart="92.11" type="type2" route="0" departLane="random"/>

<vehicle id="117" depart="93.97" type="type3" route="0" departLane="random"/>

<vehicle id="118" depart="95.06" type="type2" route="0" departLane="random"/>

<vehicle id="119" depart="95.23" type="type3" route="0" departLane="random"/>

<vehicle id="120" depart="95.73" type="type3" route="1" departLane="random"/>

<vehicle id="121" depart="97.39" type="type2" route="0" departLane="random"/>

<vehicle id="122" depart="98.58" type="type2" route="0" departLane="random"/>

<vehicle id="123" depart="98.97" type="type2" route="0" departLane="random"/>

<vehicle id="124" depart="99.52" type="type3" route="0" departLane="random"/>

<vehicle id="125" depart="99.99" type="type1" route="0" departLane="random"/>

<vehicle id="126" depart="100.83" type="type1" route="0" departLane="random"/>

<vehicle id="127" depart="100.83" type="type2" route="0" departLane="random"/>

<vehicle id="128" depart="101.92" type="type3" route="2" departLane="random"/>

<vehicle id="129" depart="103.33" type="type2" route="0" departLane="random"/>

<vehicle id="130" depart="104.54" type="type1" route="1" departLane="random"/>

<vehicle id="131" depart="105.19" type="type2" route="0" departLane="random"/>

<vehicle id="132" depart="105.73" type="type2" route="0" departLane="random"/>

<vehicle id="133" depart="105.75" type="type3" route="0" departLane="random"/>

<vehicle id="134" depart="107.44" type="type3" route="0" departLane="random"/>

<vehicle id="135" depart="109.0" type="type3" route="0" departLane="random"/>

<vehicle id="136" depart="109.24" type="type3" route="0" departLane="random"/>

<vehicle id="137" depart="109.77" type="type3" route="1" departLane="random"/>

<vehicle id="138" depart="110.05" type="type3" route="0" departLane="random"/>

<vehicle id="139" depart="111.15" type="type0" route="1" departLane="random"/>

<vehicle id="140" depart="111.19" type="type3" route="1" departLane="random"/>

<vehicle id="141" depart="112.66" type="type3" route="0" departLane="random"/>

<vehicle id="142" depart="112.67" type="type2" route="0" departLane="random"/>

<vehicle id="143" depart="112.92" type="type2" route="0" departLane="random"/>

<vehicle id="144" depart="113.36" type="type3" route="1" departLane="random"/>

<vehicle id="145" depart="113.48" type="type2" route="0" departLane="random"/>

<vehicle id="146" depart="115.16" type="type2" route="0" departLane="random"/>

<vehicle id="147" depart="116.51" type="type2" route="0" departLane="random"/>

<vehicle id="148" depart="117.05" type="type2" route="1" departLane="random"/>

<vehicle id="149" depart="119.06" type="type3" route="0" departLane="random"/>

<vehicle id="150" depart="119.08" type="type2" route="1" departLane="random"/>

<vehicle id="151" depart="120.11" type="type2" route="2" departLane="random"/>

<vehicle id="152" depart="120.46" type="type2" route="2" departLane="random"/>

<vehicle id="153" depart="120.53" type="type3" route="2" departLane="random"/>

<vehicle id="154" depart="120.74" type="type1" route="0" departLane="random"/>

<vehicle id="155" depart="121.47" type="type2" route="0" departLane="random"/>

<vehicle id="156" depart="121.82" type="type2" route="0" departLane="random"/>

<vehicle id="157" depart="121.84" type="type3" route="0" departLane="random"/>

<vehicle id="158" depart="122.44" type="type3" route="0" departLane="random"/>

<vehicle id="159" depart="125.3" type="type3" route="0" departLane="random"/>

<vehicle id="160" depart="125.78" type="type3" route="1" departLane="random"/>

<vehicle id="161" depart="126.75" type="type3" route="0" departLane="random"/>

<vehicle id="162" depart="128.07" type="type2" route="1" departLane="random"/>

<vehicle id="163" depart="129.09" type="type3" route="0" departLane="random"/>

<vehicle id="164" depart="130.91" type="type0" route="0" departLane="random"/>

<vehicle id="165" depart="131.27" type="type0" route="1" departLane="random"/>

<vehicle id="166" depart="131.39" type="type3" route="0" departLane="random"/>

<vehicle id="167" depart="131.64" type="type2" route="0" departLane="random"/>

<vehicle id="168" depart="134.93" type="type2" route="0" departLane="random"/>

<vehicle id="169" depart="136.39" type="type0" route="1" departLane="random"/>

<vehicle id="170" depart="138.42" type="type2" route="0" departLane="random"/>

<vehicle id="171" depart="140.62" type="type3" route="0" departLane="random"/>

<vehicle id="172" depart="141.07" type="type2" route="1" departLane="random"/>

<vehicle id="173" depart="141.22" type="type3" route="0" departLane="random"/>

<vehicle id="174" depart="141.39" type="type0" route="0" departLane="random"/>

<vehicle id="175" depart="141.67" type="type0" route="0" departLane="random"/>

<vehicle id="176" depart="142.2" type="type2" route="0" departLane="random"/>

<vehicle id="177" depart="144.62" type="type2" route="0" departLane="random"/>

<vehicle id="178" depart="145.67" type="type1" route="0" departLane="random"/>

<vehicle id="179" depart="146.0" type="type3" route="0" departLane="random"/>

<vehicle id="180" depart="146.46" type="type1" route="0" departLane="random"/>

<vehicle id="181" depart="147.86" type="type3" route="0" departLane="random"/>

<vehicle id="182" depart="148.4" type="type1" route="0" departLane="random"/>

<vehicle id="183" depart="150.25" type="type2" route="1" departLane="random"/>

<vehicle id="184" depart="150.27" type="type2" route="0" departLane="random"/>

<vehicle id="185" depart="151.18" type="type2" route="0" departLane="random"/>

<vehicle id="186" depart="151.33" type="type3" route="1" departLane="random"/>

<vehicle id="187" depart="153.59" type="type3" route="0" departLane="random"/>

<vehicle id="188" depart="153.82" type="type1" route="1" departLane="random"/>

<vehicle id="189" depart="154.04" type="type3" route="0" departLane="random"/>

<vehicle id="190" depart="154.63" type="type2" route="0" departLane="random"/>

<vehicle id="191" depart="154.63" type="type1" route="0" departLane="random"/>

<vehicle id="192" depart="154.95" type="type2" route="0" departLane="random"/>

<vehicle id="193" depart="155.09" type="type3" route="2" departLane="random"/>

<vehicle id="194" depart="156.34" type="type3" route="0" departLane="random"/>

<vehicle id="195" depart="156.75" type="type3" route="0" departLane="random"/>

<vehicle id="196" depart="156.78" type="type3" route="0" departLane="random"/>

<vehicle id="197" depart="157.96" type="type2" route="0" departLane="random"/>

<vehicle id="198" depart="159.38" type="type0" route="0" departLane="random"/>

<vehicle id="199" depart="159.89" type="type2" route="0" departLane="random"/>

<vehicle id="200" depart="160.38" type="type2" route="0" departLane="random"/>

<vehicle id="201" depart="160.47" type="type2" route="2" departLane="random"/>

<vehicle id="202" depart="160.62" type="type3" route="1" departLane="random"/>

<vehicle id="203" depart="160.81" type="type2" route="0" departLane="random"/>

<vehicle id="204" depart="161.59" type="type3" route="1" departLane="random"/>

<vehicle id="205" depart="162.05" type="type2" route="0" departLane="random"/>

<vehicle id="206" depart="162.12" type="type3" route="0" departLane="random"/>

<vehicle id="207" depart="162.41" type="type2" route="1" departLane="random"/>

<vehicle id="208" depart="162.85" type="type2" route="2" departLane="random"/>

<vehicle id="209" depart="162.9" type="type2" route="0" departLane="random"/>

<vehicle id="210" depart="163.76" type="type3" route="0" departLane="random"/>

<vehicle id="211" depart="164.43" type="type2" route="2" departLane="random"/>

<vehicle id="212" depart="164.7" type="type1" route="0" departLane="random"/>

<vehicle id="213" depart="165.86" type="type0" route="2" departLane="random"/>

<vehicle id="214" depart="168.09" type="type2" route="0" departLane="random"/>

<vehicle id="215" depart="168.43" type="type2" route="0" departLane="random"/>

<vehicle id="216" depart="168.56" type="type2" route="1" departLane="random"/>

<vehicle id="217" depart="170.48" type="type3" route="0" departLane="random"/>

<vehicle id="218" depart="171.54" type="type2" route="0" departLane="random"/>

<vehicle id="219" depart="171.59" type="type2" route="0" departLane="random"/>

<vehicle id="220" depart="172.14" type="type2" route="0" departLane="random"/>

<vehicle id="221" depart="172.88" type="type0" route="1" departLane="random"/>

<vehicle id="222" depart="172.89" type="type3" route="0" departLane="random"/>

<vehicle id="223" depart="173.2" type="type3" route="0" departLane="random"/>

<vehicle id="224" depart="174.12" type="type2" route="0" departLane="random"/>

<vehicle id="225" depart="174.64" type="type1" route="0" departLane="random"/>

<vehicle id="226" depart="174.66" type="type0" route="0" departLane="random"/>

<vehicle id="227" depart="174.98" type="type3" route="0" departLane="random"/>

<vehicle id="228" depart="176.81" type="type1" route="0" departLane="random"/>

<vehicle id="229" depart="177.3" type="type3" route="0" departLane="random"/>

<vehicle id="230" depart="177.69" type="type3" route="0" departLane="random"/>

<vehicle id="231" depart="177.93" type="type3" route="0" departLane="random"/>

<vehicle id="232" depart="178.54" type="type2" route="0" departLane="random"/>

<vehicle id="233" depart="178.56" type="type3" route="0" departLane="random"/>

<vehicle id="234" depart="179.34" type="type0" route="2" departLane="random"/>

<vehicle id="235" depart="179.77" type="type0" route="2" departLane="random"/>

<vehicle id="236" depart="184.52" type="type3" route="0" departLane="random"/>

<vehicle id="237" depart="185.81" type="type3" route="0" departLane="random"/>

<vehicle id="238" depart="185.81" type="type3" route="0" departLane="random"/>

<vehicle id="239" depart="186.21" type="type0" route="2" departLane="random"/>

<vehicle id="240" depart="186.47" type="type2" route="0" departLane="random"/>

<vehicle id="241" depart="186.51" type="type1" route="1" departLane="random"/>

<vehicle id="242" depart="187.43" type="type3" route="0" departLane="random"/>

<vehicle id="243" depart="187.46" type="type1" route="1" departLane="random"/>

<vehicle id="244" depart="188.85" type="type3" route="0" departLane="random"/>

<vehicle id="245" depart="189.1" type="type3" route="0" departLane="random"/>

<vehicle id="246" depart="189.19" type="type0" route="0" departLane="random"/>

<vehicle id="247" depart="189.32" type="type1" route="0" departLane="random"/>

<vehicle id="248" depart="189.78" type="type2" route="1" departLane="random"/>

<vehicle id="249" depart="189.82" type="type3" route="1" departLane="random"/>

<vehicle id="250" depart="190.03" type="type3" route="1" departLane="random"/>

<vehicle id="251" depart="190.41" type="type3" route="0" departLane="random"/>

<vehicle id="252" depart="190.95" type="type0" route="2" departLane="random"/>

<vehicle id="253" depart="191.8" type="type2" route="0" departLane="random"/>

<vehicle id="254" depart="192.08" type="type3" route="2" departLane="random"/>

<vehicle id="255" depart="192.13" type="type2" route="0" departLane="random"/>

<vehicle id="256" depart="192.14" type="type3" route="0" departLane="random"/>

<vehicle id="257" depart="193.6" type="type3" route="1" departLane="random"/>

<vehicle id="258" depart="194.03" type="type3" route="0" departLane="random"/>

<vehicle id="259" depart="196.54" type="type3" route="0" departLane="random"/>

<vehicle id="260" depart="197.91" type="type2" route="0" departLane="random"/>

<vehicle id="261" depart="198.74" type="type3" route="1" departLane="random"/>

<vehicle id="262" depart="199.23" type="type1" route="0" departLane="random"/>

<vehicle id="263" depart="200.2" type="type2" route="0" departLane="random"/>

<vehicle id="264" depart="201.66" type="type2" route="2" departLane="random"/>

<vehicle id="265" depart="203.22" type="type3" route="0" departLane="random"/>

<vehicle id="266" depart="205.16" type="type2" route="0" departLane="random"/>

<vehicle id="267" depart="205.77" type="type2" route="0" departLane="random"/>

<vehicle id="268" depart="206.52" type="type2" route="0" departLane="random"/>

<vehicle id="269" depart="206.56" type="type3" route="0" departLane="random"/>

<vehicle id="270" depart="206.56" type="type2" route="0" departLane="random"/>

<vehicle id="271" depart="206.96" type="type1" route="2" departLane="random"/>

<vehicle id="272" depart="207.9" type="type0" route="1" departLane="random"/>

<vehicle id="273" depart="208.87" type="type2" route="1" departLane="random"/>

<vehicle id="274" depart="209.35" type="type3" route="1" departLane="random"/>

<vehicle id="275" depart="209.6" type="type3" route="0" departLane="random"/>

<vehicle id="276" depart="211.68" type="type0" route="0" departLane="random"/>

<vehicle id="277" depart="211.92" type="type3" route="0" departLane="random"/>

<vehicle id="278" depart="212.6" type="type1" route="0" departLane="random"/>

<vehicle id="279" depart="214.07" type="type2" route="1" departLane="random"/>

<vehicle id="280" depart="214.5" type="type2" route="1" departLane="random"/>

<vehicle id="281" depart="214.8" type="type0" route="0" departLane="random"/>

<vehicle id="282" depart="215.18" type="type3" route="1" departLane="random"/>

<vehicle id="283" depart="215.82" type="type3" route="0" departLane="random"/>

<vehicle id="284" depart="216.21" type="type0" route="1" departLane="random"/>

<vehicle id="285" depart="216.32" type="type2" route="0" departLane="random"/>

<vehicle id="286" depart="216.43" type="type2" route="0" departLane="random"/>

<vehicle id="287" depart="216.99" type="type2" route="1" departLane="random"/>

<vehicle id="288" depart="217.17" type="type3" route="0" departLane="random"/>

<vehicle id="289" depart="217.21" type="type2" route="2" departLane="random"/>

<vehicle id="290" depart="218.37" type="type3" route="1" departLane="random"/>

<vehicle id="291" depart="218.7" type="type3" route="2" departLane="random"/>

<vehicle id="292" depart="219.26" type="type3" route="0" departLane="random"/>

<vehicle id="293" depart="219.93" type="type1" route="0" departLane="random"/>

<vehicle id="294" depart="220.69" type="type2" route="0" departLane="random"/>

<vehicle id="295" depart="224.99" type="type2" route="0" departLane="random"/>

<vehicle id="296" depart="225.46" type="type3" route="1" departLane="random"/>

<vehicle id="297" depart="225.7" type="type3" route="0" departLane="random"/>

<vehicle id="298" depart="229.88" type="type2" route="1" departLane="random"/>

<vehicle id="299" depart="230.42" type="type2" route="0" departLane="random"/>

<vehicle id="300" depart="231.08" type="type2" route="0" departLane="random"/>

<vehicle id="301" depart="233.23" type="type2" route="0" departLane="random"/>

<vehicle id="302" depart="236.93" type="type0" route="0" departLane="random"/>

<vehicle id="303" depart="237.7" type="type0" route="1" departLane="random"/>

<vehicle id="304" depart="238.08" type="type3" route="0" departLane="random"/>

<vehicle id="305" depart="239.42" type="type1" route="0" departLane="random"/>

<vehicle id="306" depart="240.9" type="type0" route="0" departLane="random"/>

<vehicle id="307" depart="240.9" type="type2" route="1" departLane="random"/>

<vehicle id="308" depart="241.35" type="type2" route="0" departLane="random"/>

<vehicle id="309" depart="242.67" type="type3" route="1" departLane="random"/>

<vehicle id="310" depart="243.22" type="type3" route="1" departLane="random"/>

<vehicle id="311" depart="244.84" type="type2" route="2" departLane="random"/>

<vehicle id="312" depart="246.67" type="type3" route="0" departLane="random"/>

<vehicle id="313" depart="248.1" type="type3" route="1" departLane="random"/>

<vehicle id="314" depart="248.67" type="type3" route="0" departLane="random"/>

<vehicle id="315" depart="248.68" type="type2" route="0" departLane="random"/>

<vehicle id="316" depart="250.29" type="type3" route="0" departLane="random"/>

<vehicle id="317" depart="253.41" type="type2" route="1" departLane="random"/>

<vehicle id="318" depart="253.44" type="type2" route="0" departLane="random"/>

<vehicle id="319" depart="254.61" type="type3" route="0" departLane="random"/>

<vehicle id="320" depart="254.63" type="type2" route="0" departLane="random"/>

<vehicle id="321" depart="258.15" type="type3" route="1" departLane="random"/>

<vehicle id="322" depart="258.25" type="type2" route="2" departLane="random"/>

<vehicle id="323" depart="259.01" type="type2" route="1" departLane="random"/>

<vehicle id="324" depart="259.26" type="type2" route="1" departLane="random"/>

<vehicle id="325" depart="259.47" type="type3" route="0" departLane="random"/>

<vehicle id="326" depart="260.93" type="type2" route="0" departLane="random"/>

<vehicle id="327" depart="261.02" type="type0" route="1" departLane="random"/>

<vehicle id="328" depart="261.38" type="type0" route="1" departLane="random"/>

<vehicle id="329" depart="263.01" type="type2" route="0" departLane="random"/>

<vehicle id="330" depart="263.5" type="type3" route="0" departLane="random"/>

<vehicle id="331" depart="263.56" type="type2" route="0" departLane="random"/>

<vehicle id="332" depart="264.41" type="type2" route="0" departLane="random"/>

<vehicle id="333" depart="264.9" type="type2" route="0" departLane="random"/>

<vehicle id="334" depart="265.7" type="type2" route="0" departLane="random"/>

<vehicle id="335" depart="265.73" type="type2" route="0" departLane="random"/>

<vehicle id="336" depart="266.67" type="type2" route="0" departLane="random"/>

<vehicle id="337" depart="266.89" type="type0" route="0" departLane="random"/>

<vehicle id="338" depart="266.91" type="type3" route="0" departLane="random"/>

<vehicle id="339" depart="267.97" type="type0" route="0" departLane="random"/>

<vehicle id="340" depart="269.09" type="type3" route="0" departLane="random"/>

<vehicle id="341" depart="270.19" type="type3" route="0" departLane="random"/>

<vehicle id="342" depart="270.8" type="type2" route="0" departLane="random"/>

<vehicle id="343" depart="271.71" type="type2" route="0" departLane="random"/>

<vehicle id="344" depart="272.89" type="type2" route="0" departLane="random"/>

<vehicle id="345" depart="273.36" type="type1" route="0" departLane="random"/>

<vehicle id="346" depart="276.81" type="type2" route="1" departLane="random"/>

<vehicle id="347" depart="277.11" type="type2" route="0" departLane="random"/>

<vehicle id="348" depart="277.43" type="type3" route="0" departLane="random"/>

<vehicle id="349" depart="279.52" type="type3" route="0" departLane="random"/>

<vehicle id="350" depart="279.63" type="type3" route="0" departLane="random"/>

<vehicle id="351" depart="282.41" type="type3" route="0" departLane="random"/>

<vehicle id="352" depart="283.09" type="type3" route="0" departLane="random"/>

<vehicle id="353" depart="284.12" type="type2" route="0" departLane="random"/>

<vehicle id="354" depart="286.31" type="type1" route="2" departLane="random"/>

<vehicle id="355" depart="287.66" type="type2" route="0" departLane="random"/>

<vehicle id="356" depart="288.81" type="type3" route="0" departLane="random"/>

<vehicle id="357" depart="289.41" type="type1" route="0" departLane="random"/>

<vehicle id="358" depart="292.28" type="type3" route="1" departLane="random"/>

<vehicle id="359" depart="292.82" type="type0" route="0" departLane="random"/>

<vehicle id="360" depart="293.44" type="type2" route="0" departLane="random"/>

<vehicle id="361" depart="293.74" type="type3" route="0" departLane="random"/>

<vehicle id="362" depart="295.34" type="type3" route="0" departLane="random"/>

<vehicle id="363" depart="297.78" type="type3" route="0" departLane="random"/>

<vehicle id="364" depart="298.24" type="type2" route="1" departLane="random"/>

<vehicle id="365" depart="298.53" type="type3" route="0" departLane="random"/>

<vehicle id="366" depart="298.66" type="type3" route="0" departLane="random"/>

<vehicle id="367" depart="298.67" type="type1" route="1" departLane="random"/>

<vehicle id="368" depart="299.61" type="type1" route="0" departLane="random"/>

<vehicle id="369" depart="300.69" type="type3" route="0" departLane="random"/>
