<?xml version="1.0"?>

<routes xmlns:xsi="http://www.w3.org/2001/XMLSchema-instance" xsi:noNamespaceSchemaLocation="http://sumo.dlr.de/xsd/routes_file.xsd">

<vType id="type0" color="255,105,180" length = "8.0" speedFactor="normc(1.0,0.1,0.2,2)" lcSpeedGain = "1.6"/>
<vType id="type1" color="255,190,180" length = "8.0" carFollowModel = "IDM" speedFactor="normc(1.0,0.1,0.2,2)" lcSpeedGain = "1.6"/>
<vType id="type2" color="22,255,255" length = "3.5" speedFactor="normc(1.0,0.1,0.2,2)" lcSpeedGain = "1.6"/>
<vType id="type3" color="22,55,255" length = "3.5" carFollowModel = "IDM" speedFactor="normc(1.0,0.1,0.2,2)" lcSpeedGain = "1.6"/>

<route id="0" edges="m3 m4 m5 m6 m7 m8 m9"/> 
<route id="1" edges="m3 m4 m5 m6 m7 m8 rout1"/> 
<route id="2" edges="rlight1 rin3 m7 m8 m9"/> 
<vehicle id="0" depart="0.1" type="type2" route="0" departLane="random"/>

<vehicle id="1" depart="0.9" type="type3" route="2" departLane="random"/>

<vehicle id="2" depart="2.17" type="type2" route="0" departLane="random"/>

<vehicle id="3" depart="2.97" type="type3" route="1" departLane="random"/>

<vehicle id="4" depart="3.35" type="type1" route="0" departLane="random"/>

<vehicle id="5" depart="6.98" type="type2" route="0" departLane="random"/>

<vehicle id="6" depart="7.04" type="type1" route="0" departLane="random"/>

<vehicle id="7" depart="7.41" type="type3" route="2" departLane="random"/>

<vehicle id="8" depart="9.09" type="type0" route="0" departLane="random"/>

<vehicle id="9" depart="9.41" type="type3" route="0" departLane="random"/>

<vehicle id="10" depart="9.64" type="type2" route="1" departLane="random"/>

<vehicle id="11" depart="11.29" type="type2" route="0" departLane="random"/>

<vehicle id="12" depart="11.69" type="type2" route="0" departLane="random"/>

<vehicle id="13" depart="12.07" type="type2" route="0" departLane="random"/>

<vehicle id="14" depart="12.8" type="type3" route="2" departLane="random"/>

<vehicle id="15" depart="14.21" type="type3" route="0" departLane="random"/>

<vehicle id="16" depart="15.4" type="type3" route="0" departLane="random"/>

<vehicle id="17" depart="16.08" type="type3" route="0" departLane="random"/>

<vehicle id="18" depart="17.32" type="type3" route="0" departLane="random"/>

<vehicle id="19" depart="17.66" type="type1" route="2" departLane="random"/>

<vehicle id="20" depart="18.31" type="type2" route="1" departLane="random"/>

<vehicle id="21" depart="18.69" type="type2" route="0" departLane="random"/>

<vehicle id="22" depart="18.69" type="type2" route="1" departLane="random"/>

<vehicle id="23" depart="19.58" type="type3" route="1" departLane="random"/>

<vehicle id="24" depart="20.03" type="type2" route="0" departLane="random"/>

<vehicle id="25" depart="20.24" type="type3" route="1" departLane="random"/>

<vehicle id="26" depart="20.27" type="type0" route="2" departLane="random"/>

<vehicle id="27" depart="23.06" type="type2" route="1" departLane="random"/>

<vehicle id="28" depart="24.01" type="type3" route="1" departLane="random"/>

<vehicle id="29" depart="24.2" type="type1" route="2" departLane="random"/>

<vehicle id="30" depart="25.3" type="type3" route="0" departLane="random"/>

<vehicle id="31" depart="25.35" type="type2" route="1" departLane="random"/>

<vehicle id="32" depart="26.18" type="type3" route="0" departLane="random"/>

<vehicle id="33" depart="26.46" type="type2" route="0" departLane="random"/>

<vehicle id="34" depart="26.65" type="type2" route="0" departLane="random"/>

<vehicle id="35" depart="26.94" type="type2" route="0" departLane="random"/>

<vehicle id="36" depart="28.09" type="type2" route="0" departLane="random"/>

<vehicle id="37" depart="28.31" type="type1" route="1" departLane="random"/>

<vehicle id="38" depart="28.91" type="type2" route="1" departLane="random"/>

<vehicle id="39" depart="29.0" type="type2" route="0" departLane="random"/>

<vehicle id="40" depart="30.04" type="type3" route="0" departLane="random"/>

<vehicle id="41" depart="30.15" type="type2" route="0" departLane="random"/>

<vehicle id="42" depart="30.7" type="type3" route="0" departLane="random"/>

<vehicle id="43" depart="31.07" type="type3" route="0" departLane="random"/>

<vehicle id="44" depart="31.67" type="type1" route="0" departLane="random"/>

<vehicle id="45" depart="31.74" type="type3" route="0" departLane="random"/>

<vehicle id="46" depart="32.03" type="type3" route="0" departLane="random"/>

<vehicle id="47" depart="33.2" type="type2" route="1" departLane="random"/>

<vehicle id="48" depart="33.48" type="type2" route="0" departLane="random"/>

<vehicle id="49" depart="34.63" type="type1" route="0" departLane="random"/>

<vehicle id="50" depart="35.08" type="type3" route="0" departLane="random"/>

<vehicle id="51" depart="35.51" type="type2" route="1" departLane="random"/>

<vehicle id="52" depart="35.84" type="type2" route="0" departLane="random"/>

<vehicle id="53" depart="39.2" type="type3" route="0" departLane="random"/>

<vehicle id="54" depart="39.9" type="type3" route="0" departLane="random"/>

<vehicle id="55" depart="40.51" type="type2" route="0" departLane="random"/>

<vehicle id="56" depart="41.14" type="type3" route="1" departLane="random"/>

<vehicle id="57" depart="41.4" type="type2" route="0" departLane="random"/>

<vehicle id="58" depart="41.89" type="type3" route="0" departLane="random"/>

<vehicle id="59" depart="42.16" type="type2" route="0" departLane="random"/>

<vehicle id="60" depart="42.42" type="type2" route="0" departLane="random"/>

<vehicle id="61" depart="42.83" type="type3" route="0" departLane="random"/>

<vehicle id="62" depart="43.73" type="type3" route="0" departLane="random"/>

<vehicle id="63" depart="46.42" type="type2" route="0" departLane="random"/>

<vehicle id="64" depart="48.42" type="type2" route="1" departLane="random"/>

<vehicle id="65" depart="49.49" type="type3" route="0" departLane="random"/>

<vehicle id="66" depart="49.69" type="type3" route="1" departLane="random"/>

<vehicle id="67" depart="50.67" type="type3" route="0" departLane="random"/>

<vehicle id="68" depart="51.13" type="type2" route="0" departLane="random"/>

<vehicle id="69" depart="52.39" type="type0" route="0" departLane="random"/>

<vehicle id="70" depart="53.63" type="type3" route="1" departLane="random"/>

<vehicle id="71" depart="55.28" type="type3" route="0" departLane="random"/>

<vehicle id="72" depart="56.53" type="type2" route="0" departLane="random"/>

<vehicle id="73" depart="59.5" type="type3" route="0" departLane="random"/>

<vehicle id="74" depart="59.51" type="type2" route="2" departLane="random"/>

<vehicle id="75" depart="59.62" type="type3" route="0" departLane="random"/>

<vehicle id="76" depart="59.92" type="type2" route="1" departLane="random"/>

<vehicle id="77" depart="60.67" type="type1" route="1" departLane="random"/>

<vehicle id="78" depart="60.97" type="type2" route="0" departLane="random"/>

<vehicle id="79" depart="62.82" type="type2" route="0" departLane="random"/>

<vehicle id="80" depart="63.87" type="type1" route="0" departLane="random"/>

<vehicle id="81" depart="63.98" type="type3" route="0" departLane="random"/>

<vehicle id="82" depart="64.17" type="type0" route="0" departLane="random"/>

<vehicle id="83" depart="64.27" type="type3" route="0" departLane="random"/>

<vehicle id="84" depart="65.34" type="type3" route="0" departLane="random"/>

<vehicle id="85" depart="65.46" type="type2" route="2" departLane="random"/>

<vehicle id="86" depart="67.13" type="type3" route="1" departLane="random"/>

<vehicle id="87" depart="67.43" type="type2" route="0" departLane="random"/>

<vehicle id="88" depart="67.55" type="type3" route="1" departLane="random"/>

<vehicle id="89" depart="68.25" type="type2" route="0" departLane="random"/>

<vehicle id="90" depart="69.59" type="type2" route="0" departLane="random"/>

<vehicle id="91" depart="70.16" type="type2" route="1" departLane="random"/>

<vehicle id="92" depart="70.48" type="type0" route="0" departLane="random"/>

<vehicle id="93" depart="70.99" type="type2" route="0" departLane="random"/>

<vehicle id="94" depart="72.56" type="type2" route="1" departLane="random"/>

<vehicle id="95" depart="73.09" type="type3" route="1" departLane="random"/>

<vehicle id="96" depart="73.13" type="type1" route="1" departLane="random"/>

<vehicle id="97" depart="73.24" type="type2" route="0" departLane="random"/>

<vehicle id="98" depart="73.66" type="type3" route="0" departLane="random"/>

<vehicle id="99" depart="74.01" type="type2" route="2" departLane="random"/>

<vehicle id="100" depart="74.18" type="type3" route="0" departLane="random"/>

<vehicle id="101" depart="74.18" type="type3" route="0" departLane="random"/>

<vehicle id="102" depart="75.17" type="type2" route="1" departLane="random"/>

<vehicle id="103" depart="75.36" type="type3" route="0" departLane="random"/>

<vehicle id="104" depart="77.42" type="type3" route="0" departLane="random"/>

<vehicle id="105" depart="78.37" type="type2" route="0" departLane="random"/>

<vehicle id="106" depart="79.01" type="type0" route="0" departLane="random"/>

<vehicle id="107" depart="79.04" type="type3" route="0" departLane="random"/>

<vehicle id="108" depart="79.82" type="type1" route="0" departLane="random"/>

<vehicle id="109" depart="80.27" type="type1" route="0" departLane="random"/>

<vehicle id="110" depart="80.84" type="type2" route="0" departLane="random"/>

<vehicle id="111" depart="82.72" type="type1" route="0" departLane="random"/>

<vehicle id="112" depart="83.38" type="type3" route="0" departLane="random"/>

<vehicle id="113" depart="83.42" type="type2" route="1" departLane="random"/>

<vehicle id="114" depart="83.49" type="type3" route="0" departLane="random"/>

<vehicle id="115" depart="84.12" type="type3" route="0" departLane="random"/>

<vehicle id="116" depart="85.15" type="type2" route="0" departLane="random"/>

<vehicle id="117" depart="85.22" type="type3" route="1" departLane="random"/>

<vehicle id="118" depart="86.3" type="type3" route="1" departLane="random"/>

<vehicle id="119" depart="86.77" type="type2" route="0" departLane="random"/>

<vehicle id="120" depart="87.37" type="type3" route="0" departLane="random"/>

<vehicle id="121" depart="87.66" type="type1" route="0" departLane="random"/>

<vehicle id="122" depart="88.64" type="type2" route="1" departLane="random"/>

<vehicle id="123" depart="90.56" type="type0" route="0" departLane="random"/>

<vehicle id="124" depart="90.63" type="type3" route="0" departLane="random"/>

<vehicle id="125" depart="90.64" type="type2" route="0" departLane="random"/>

<vehicle id="126" depart="91.14" type="type1" route="0" departLane="random"/>

<vehicle id="127" depart="91.25" type="type2" route="0" departLane="random"/>

<vehicle id="128" depart="91.77" type="type3" route="0" departLane="random"/>

<vehicle id="129" depart="94.67" type="type2" route="0" departLane="random"/>

<vehicle id="130" depart="94.94" type="type1" route="1" departLane="random"/>

<vehicle id="131" depart="95.01" type="type2" route="1" departLane="random"/>

<vehicle id="132" depart="95.31" type="type1" route="1" departLane="random"/>

<vehicle id="133" depart="95.41" type="type1" route="0" departLane="random"/>

<vehicle id="134" depart="97.53" type="type3" route="0" departLane="random"/>

<vehicle id="135" depart="98.15" type="type3" route="0" departLane="random"/>

<vehicle id="136" depart="98.5" type="type3" route="0" departLane="random"/>

<vehicle id="137" depart="98.98" type="type3" route="1" departLane="random"/>

<vehicle id="138" depart="99.66" type="type2" route="1" departLane="random"/>

<vehicle id="139" depart="99.77" type="type2" route="0" departLane="random"/>

<vehicle id="140" depart="101.31" type="type3" route="2" departLane="random"/>

<vehicle id="141" depart="103.0" type="type0" route="0" departLane="random"/>

<vehicle id="142" depart="103.06" type="type3" route="0" departLane="random"/>

<vehicle id="143" depart="103.55" type="type2" route="0" departLane="random"/>

<vehicle id="144" depart="104.77" type="type3" route="0" departLane="random"/>

<vehicle id="145" depart="104.93" type="type1" route="0" departLane="random"/>

<vehicle id="146" depart="105.92" type="type2" route="2" departLane="random"/>

<vehicle id="147" depart="108.39" type="type3" route="2" departLane="random"/>

<vehicle id="148" depart="108.96" type="type2" route="0" departLane="random"/>

<vehicle id="149" depart="110.14" type="type3" route="0" departLane="random"/>

<vehicle id="150" depart="111.29" type="type2" route="0" departLane="random"/>

<vehicle id="151" depart="112.06" type="type3" route="0" departLane="random"/>

<vehicle id="152" depart="112.92" type="type3" route="0" departLane="random"/>

<vehicle id="153" depart="113.05" type="type2" route="0" departLane="random"/>

<vehicle id="154" depart="113.55" type="type2" route="0" departLane="random"/>

<vehicle id="155" depart="113.87" type="type3" route="0" departLane="random"/>

<vehicle id="156" depart="114.02" type="type2" route="2" departLane="random"/>

<vehicle id="157" depart="116.57" type="type3" route="0" departLane="random"/>

<vehicle id="158" depart="117.23" type="type2" route="2" departLane="random"/>

<vehicle id="159" depart="117.43" type="type0" route="0" departLane="random"/>

<vehicle id="160" depart="117.76" type="type3" route="0" departLane="random"/>

<vehicle id="161" depart="118.64" type="type3" route="1" departLane="random"/>

<vehicle id="162" depart="120.28" type="type0" route="0" departLane="random"/>

<vehicle id="163" depart="120.97" type="type2" route="1" departLane="random"/>

<vehicle id="164" depart="121.0" type="type3" route="0" departLane="random"/>

<vehicle id="165" depart="122.49" type="type3" route="0" departLane="random"/>

<vehicle id="166" depart="122.51" type="type3" route="2" departLane="random"/>

<vehicle id="167" depart="122.58" type="type2" route="0" departLane="random"/>

<vehicle id="168" depart="124.95" type="type2" route="0" departLane="random"/>

<vehicle id="169" depart="125.48" type="type2" route="2" departLane="random"/>

<vehicle id="170" depart="126.93" type="type3" route="0" departLane="random"/>

<vehicle id="171" depart="127.74" type="type0" route="1" departLane="random"/>

<vehicle id="172" depart="128.21" type="type3" route="0" departLane="random"/>

<vehicle id="173" depart="129.41" type="type1" route="0" departLane="random"/>

<vehicle id="174" depart="130.23" type="type2" route="0" departLane="random"/>

<vehicle id="175" depart="131.01" type="type3" route="1" departLane="random"/>

<vehicle id="176" depart="131.14" type="type3" route="0" departLane="random"/>

<vehicle id="177" depart="132.03" type="type3" route="0" departLane="random"/>

<vehicle id="178" depart="132.53" type="type0" route="1" departLane="random"/>

<vehicle id="179" depart="133.32" type="type3" route="2" departLane="random"/>

<vehicle id="180" depart="134.84" type="type3" route="0" departLane="random"/>

<vehicle id="181" depart="136.75" type="type3" route="0" departLane="random"/>

<vehicle id="182" depart="138.3" type="type3" route="1" departLane="random"/>

<vehicle id="183" depart="140.11" type="type1" route="0" departLane="random"/>

<vehicle id="184" depart="141.73" type="type3" route="0" departLane="random"/>

<vehicle id="185" depart="143.03" type="type2" route="0" departLane="random"/>

<vehicle id="186" depart="143.12" type="type3" route="0" departLane="random"/>

<vehicle id="187" depart="143.18" type="type2" route="0" departLane="random"/>

<vehicle id="188" depart="143.95" type="type3" route="0" departLane="random"/>

<vehicle id="189" depart="144.03" type="type2" route="0" departLane="random"/>

<vehicle id="190" depart="144.23" type="type1" route="0" departLane="random"/>

<vehicle id="191" depart="145.5" type="type2" route="0" departLane="random"/>

<vehicle id="192" depart="145.6" type="type3" route="0" departLane="random"/>

<vehicle id="193" depart="145.8" type="type1" route="0" departLane="random"/>

<vehicle id="194" depart="146.99" type="type3" route="2" departLane="random"/>

<vehicle id="195" depart="151.38" type="type3" route="0" departLane="random"/>

<vehicle id="196" depart="152.09" type="type0" route="0" departLane="random"/>

<vehicle id="197" depart="153.15" type="type2" route="1" departLane="random"/>

<vehicle id="198" depart="153.79" type="type3" route="0" departLane="random"/>

<vehicle id="199" depart="155.82" type="type3" route="0" departLane="random"/>

<vehicle id="200" depart="155.85" type="type2" route="0" departLane="random"/>

<vehicle id="201" depart="156.25" type="type3" route="1" departLane="random"/>

<vehicle id="202" depart="156.89" type="type3" route="0" departLane="random"/>

<vehicle id="203" depart="157.3" type="type2" route="0" departLane="random"/>

<vehicle id="204" depart="159.54" type="type2" route="2" departLane="random"/>

<vehicle id="205" depart="161.58" type="type2" route="0" departLane="random"/>

<vehicle id="206" depart="163.27" type="type2" route="0" departLane="random"/>

<vehicle id="207" depart="165.34" type="type2" route="0" departLane="random"/>

<vehicle id="208" depart="167.35" type="type2" route="0" departLane="random"/>

<vehicle id="209" depart="167.62" type="type3" route="0" departLane="random"/>

<vehicle id="210" depart="169.61" type="type2" route="0" departLane="random"/>

<vehicle id="211" depart="169.65" type="type3" route="1" departLane="random"/>

<vehicle id="212" depart="169.84" type="type1" route="1" departLane="random"/>

<vehicle id="213" depart="170.38" type="type1" route="0" departLane="random"/>

<vehicle id="214" depart="172.84" type="type2" route="0" departLane="random"/>

<vehicle id="215" depart="173.35" type="type2" route="0" departLane="random"/>

<vehicle id="216" depart="174.71" type="type0" route="1" departLane="random"/>

<vehicle id="217" depart="176.16" type="type3" route="2" departLane="random"/>

<vehicle id="218" depart="176.94" type="type2" route="0" departLane="random"/>

<vehicle id="219" depart="179.26" type="type1" route="0" departLane="random"/>

<vehicle id="220" depart="179.35" type="type3" route="1" departLane="random"/>

<vehicle id="221" depart="179.58" type="type3" route="0" departLane="random"/>

<vehicle id="222" depart="180.64" type="type2" route="0" departLane="random"/>

<vehicle id="223" depart="181.05" type="type0" route="0" departLane="random"/>

<vehicle id="224" depart="181.14" type="type2" route="0" departLane="random"/>

<vehicle id="225" depart="184.8" type="type3" route="0" departLane="random"/>

<vehicle id="226" depart="187.11" type="type3" route="0" departLane="random"/>

<vehicle id="227" depart="187.12" type="type2" route="0" departLane="random"/>

<vehicle id="228" depart="188.52" type="type3" route="0" departLane="random"/>

<vehicle id="229" depart="188.93" type="type1" route="0" departLane="random"/>

<vehicle id="230" depart="189.04" type="type2" route="0" departLane="random"/>

<vehicle id="231" depart="190.37" type="type3" route="0" departLane="random"/>

<vehicle id="232" depart="193.22" type="type3" route="1" departLane="random"/>

<vehicle id="233" depart="194.03" type="type1" route="1" departLane="random"/>

<vehicle id="234" depart="194.13" type="type3" route="0" departLane="random"/>

<vehicle id="235" depart="195.84" type="type0" route="0" departLane="random"/>

<vehicle id="236" depart="196.33" type="type3" route="2" departLane="random"/>

<vehicle id="237" depart="199.0" type="type1" route="0" departLane="random"/>

<vehicle id="238" depart="199.64" type="type3" route="1" departLane="random"/>

<vehicle id="239" depart="200.16" type="type0" route="1" departLane="random"/>

<vehicle id="240" depart="204.27" type="type3" route="1" departLane="random"/>

<vehicle id="241" depart="204.8" type="type0" route="0" departLane="random"/>

<vehicle id="242" depart="205.39" type="type3" route="1" departLane="random"/>

<vehicle id="243" depart="206.51" type="type3" route="0" departLane="random"/>

<vehicle id="244" depart="208.26" type="type2" route="2" departLane="random"/>

<vehicle id="245" depart="209.13" type="type3" route="0" departLane="random"/>

<vehicle id="246" depart="211.26" type="type3" route="1" departLane="random"/>

<vehicle id="247" depart="211.48" type="type3" route="1" departLane="random"/>

<vehicle id="248" depart="211.83" type="type3" route="1" departLane="random"/>

<vehicle id="249" depart="211.85" type="type2" route="0" departLane="random"/>

<vehicle id="250" depart="212.1" type="type3" route="0" departLane="random"/>

<vehicle id="251" depart="213.71" type="type0" route="0" departLane="random"/>

<vehicle id="252" depart="213.84" type="type2" route="0" departLane="random"/>

<vehicle id="253" depart="215.32" type="type2" route="0" departLane="random"/>

<vehicle id="254" depart="216.62" type="type3" route="0" departLane="random"/>

<vehicle id="255" depart="217.74" type="type3" route="0" departLane="random"/>

<vehicle id="256" depart="217.84" type="type2" route="0" departLane="random"/>

<vehicle id="257" depart="217.9" type="type2" route="1" departLane="random"/>

<vehicle id="258" depart="218.18" type="type3" route="0" departLane="random"/>

<vehicle id="259" depart="218.24" type="type3" route="0" departLane="random"/>

<vehicle id="260" depart="219.44" type="type3" route="0" departLane="random"/>

<vehicle id="261" depart="220.71" type="type3" route="0" departLane="random"/>

<vehicle id="262" depart="220.89" type="type2" route="0" departLane="random"/>

<vehicle id="263" depart="221.82" type="type2" route="0" departLane="random"/>

<vehicle id="264" depart="221.82" type="type3" route="0" departLane="random"/>

<vehicle id="265" depart="222.39" type="type3" route="0" departLane="random"/>

<vehicle id="266" depart="222.45" type="type3" route="0" departLane="random"/>

<vehicle id="267" depart="224.45" type="type2" route="0" departLane="random"/>

<vehicle id="268" depart="225.1" type="type2" route="0" departLane="random"/>

<vehicle id="269" depart="225.42" type="type2" route="1" departLane="random"/>

<vehicle id="270" depart="226.49" type="type3" route="0" departLane="random"/>

<vehicle id="271" depart="226.5" type="type2" route="1" departLane="random"/>

<vehicle id="272" depart="226.51" type="type0" route="0" departLane="random"/>

<vehicle id="273" depart="228.15" type="type2" route="0" departLane="random"/>

<vehicle id="274" depart="228.4" type="type3" route="0" departLane="random"/>

<vehicle id="275" depart="228.64" type="type3" route="1" departLane="random"/>

<vehicle id="276" depart="230.48" type="type3" route="0" departLane="random"/>

<vehicle id="277" depart="233.87" type="type1" route="0" departLane="random"/>

<vehicle id="278" depart="233.92" type="type3" route="0" departLane="random"/>

<vehicle id="279" depart="234.8" type="type2" route="0" departLane="random"/>

<vehicle id="280" depart="234.9" type="type3" route="0" departLane="random"/>

<vehicle id="281" depart="235.61" type="type2" route="0" departLane="random"/>

<vehicle id="282" depart="235.79" type="type3" route="0" departLane="random"/>

<vehicle id="283" depart="235.83" type="type0" route="0" departLane="random"/>

<vehicle id="284" depart="237.29" type="type2" route="1" departLane="random"/>

<vehicle id="285" depart="237.62" type="type3" route="0" departLane="random"/>

<vehicle id="286" depart="237.99" type="type1" route="0" departLane="random"/>

<vehicle id="287" depart="238.06" type="type2" route="2" departLane="random"/>

<vehicle id="288" depart="238.51" type="type2" route="0" departLane="random"/>

<vehicle id="289" depart="239.21" type="type1" route="0" departLane="random"/>

<vehicle id="290" depart="239.61" type="type3" route="0" departLane="random"/>

<vehicle id="291" depart="240.0" type="type3" route="0" departLane="random"/>

<vehicle id="292" depart="240.55" type="type2" route="0" departLane="random"/>

<vehicle id="293" depart="241.74" type="type3" route="0" departLane="random"/>

<vehicle id="294" depart="242.12" type="type2" route="0" departLane="random"/>

<vehicle id="295" depart="242.48" type="type2" route="0" departLane="random"/>

<vehicle id="296" depart="247.74" type="type2" route="0" departLane="random"/>

<vehicle id="297" depart="249.07" type="type2" route="0" departLane="random"/>

<vehicle id="298" depart="249.89" type="type2" route="1" departLane="random"/>

<vehicle id="299" depart="250.24" type="type3" route="0" departLane="random"/>

<vehicle id="300" depart="251.26" type="type2" route="0" departLane="random"/>

<vehicle id="301" depart="251.37" type="type3" route="1" departLane="random"/>

<vehicle id="302" depart="251.52" type="type3" route="0" departLane="random"/>

<vehicle id="303" depart="252.22" type="type2" route="0" departLane="random"/>

<vehicle id="304" depart="252.83" type="type2" route="0" departLane="random"/>

<vehicle id="305" depart="252.94" type="type3" route="1" departLane="random"/>

<vehicle id="306" depart="254.19" type="type3" route="0" departLane="random"/>

<vehicle id="307" depart="254.94" type="type0" route="0" departLane="random"/>

<vehicle id="308" depart="256.43" type="type0" route="0" departLane="random"/>

<vehicle id="309" depart="256.91" type="type3" route="0" departLane="random"/>

<vehicle id="310" depart="257.47" type="type3" route="0" departLane="random"/>

<vehicle id="311" depart="258.9" type="type3" route="1" departLane="random"/>

<vehicle id="312" depart="259.87" type="type2" route="0" departLane="random"/>

<vehicle id="313" depart="260.27" type="type3" route="1" departLane="random"/>

<vehicle id="314" depart="261.51" type="type2" route="0" departLane="random"/>

<vehicle id="315" depart="261.61" type="type0" route="0" departLane="random"/>

<vehicle id="316" depart="262.21" type="type3" route="1" departLane="random"/>

<vehicle id="317" depart="265.83" type="type1" route="0" departLane="random"/>

<vehicle id="318" depart="266.13" type="type3" route="0" departLane="random"/>

<vehicle id="319" depart="266.15" type="type3" route="0" departLane="random"/>

<vehicle id="320" depart="266.2" type="type3" route="1" departLane="random"/>

<vehicle id="321" depart="266.4" type="type3" route="0" departLane="random"/>

<vehicle id="322" depart="267.15" type="type3" route="0" departLane="random"/>

<vehicle id="323" depart="267.82" type="type1" route="1" departLane="random"/>

<vehicle id="324" depart="268.03" type="type2" route="0" departLane="random"/>

<vehicle id="325" depart="268.11" type="type3" route="2" departLane="random"/>

<vehicle id="326" depart="268.55" type="type3" route="0" departLane="random"/>

<vehicle id="327" depart="268.6" type="type3" route="0" departLane="random"/>

<vehicle id="328" depart="269.1" type="type3" route="2" departLane="random"/>

<vehicle id="329" depart="269.22" type="type1" route="0" departLane="random"/>

<vehicle id="330" depart="270.56" type="type2" route="0" departLane="random"/>

<vehicle id="331" depart="270.96" type="type2" route="1" departLane="random"/>

<vehicle id="332" depart="272.08" type="type0" route="2" departLane="random"/>

<vehicle id="333" depart="273.46" type="type1" route="2" departLane="random"/>

<vehicle id="334" depart="274.45" type="type3" route="0" departLane="random"/>

<vehicle id="335" depart="274.61" type="type1" route="0" departLane="random"/>

<vehicle id="336" depart="275.52" type="type3" route="2" departLane="random"/>

<vehicle id="337" depart="276.61" type="type0" route="0" departLane="random"/>

<vehicle id="338" depart="280.19" type="type3" route="0" departLane="random"/>

<vehicle id="339" depart="280.9" type="type3" route="0" departLane="random"/>

<vehicle id="340" depart="281.64" type="type0" route="0" departLane="random"/>

<vehicle id="341" depart="282.06" type="type2" route="0" departLane="random"/>

<vehicle id="342" depart="282.72" type="type3" route="0" departLane="random"/>

<vehicle id="343" depart="283.6" type="type1" route="0" departLane="random"/>

<vehicle id="344" depart="284.33" type="type2" route="0" departLane="random"/>

<vehicle id="345" depart="284.6" type="type2" route="1" departLane="random"/>

<vehicle id="346" depart="285.02" type="type3" route="0" departLane="random"/>

<vehicle id="347" depart="285.09" type="type2" route="2" departLane="random"/>

<vehicle id="348" depart="285.24" type="type2" route="1" departLane="random"/>

<vehicle id="349" depart="286.79" type="type2" route="0" departLane="random"/>

<vehicle id="350" depart="287.25" type="type2" route="1" departLane="random"/>

<vehicle id="351" depart="287.32" type="type1" route="1" departLane="random"/>

<vehicle id="352" depart="287.45" type="type1" route="0" departLane="random"/>

<vehicle id="353" depart="287.65" type="type3" route="0" departLane="random"/>

<vehicle id="354" depart="288.02" type="type3" route="0" departLane="random"/>

<vehicle id="355" depart="288.25" type="type3" route="0" departLane="random"/>

<vehicle id="356" depart="289.51" type="type3" route="0" departLane="random"/>

<vehicle id="357" depart="289.91" type="type0" route="0" departLane="random"/>

<vehicle id="358" depart="291.4" type="type2" route="1" departLane="random"/>

<vehicle id="359" depart="291.6" type="type0" route="1" departLane="random"/>

<vehicle id="360" depart="291.94" type="type3" route="0" departLane="random"/>

<vehicle id="361" depart="292.07" type="type2" route="1" departLane="random"/>

<vehicle id="362" depart="293.04" type="type2" route="0" departLane="random"/>

<vehicle id="363" depart="293.59" type="type3" route="0" departLane="random"/>

<vehicle id="364" depart="293.98" type="type2" route="0" departLane="random"/>

<vehicle id="365" depart="294.58" type="type3" route="0" departLane="random"/>

<vehicle id="366" depart="294.79" type="type2" route="0" departLane="random"/>

<vehicle id="367" depart="296.88" type="type3" route="0" departLane="random"/>

<vehicle id="368" depart="297.12" type="type0" route="1" departLane="random"/>
