<additional>
	<inductionLoop id='rout1_0loop' lane='rout1_0' pos='10' freq='100' file='data/resultsOfDetectors.xml'/>
	<inductionLoop id='rlight1_0loop' lane='rlight1_0' pos='10' freq='100' file='data/resultsOfDetectors.xml'/>
	<inductionLoop id='rlight1_1loop' lane='rlight1_0' pos='-10' freq='100' file='data/resultsOfDetectors.xml'/>
	<inductionLoop id='rlight1_2loop' lane='rlight1_0' pos='50' freq='100' file='data/resultsOfDetectors.xml'/>
	<inductionLoop id='rlight1_3loop' lane='rlight1_0' pos='90' freq='100' file='data/resultsOfDetectors.xml'/>
	<inductionLoop id='rlight1_4loop' lane='rlight1_0' pos='130' freq='100' file='data/resultsOfDetectors.xml'/>
	<inductionLoop id='m3_0loop' lane='m3_0' pos='10' freq='100' file='data/resultsOfDetectors.xml'/>
	<inductionLoop id='m3_1loop' lane='m3_1' pos='10' freq='100' file='data/resultsOfDetectors.xml'/>
	<inductionLoop id='m3_2loop' lane='m3_2' pos='10' freq='100' file='data/resultsOfDetectors.xml'/>
	<inductionLoop id='m3_3loop' lane='m3_3' pos='10' freq='100' file='data/resultsOfDetectors.xml'/>
	<inductionLoop id='m3_4loop' lane='m3_4' pos='10' freq='100' file='data/resultsOfDetectors.xml'/>
	<inductionLoop id='m3_5loop' lane='m3_0' pos='-10' freq='100' file='data/resultsOfDetectors.xml'/>
	<inductionLoop id='m3_6loop' lane='m3_1' pos='-10' freq='100' file='data/resultsOfDetectors.xml'/>
	<inductionLoop id='m3_7loop' lane='m3_2' pos='-10' freq='100' file='data/resultsOfDetectors.xml'/>
	<inductionLoop id='m3_8loop' lane='m3_3' pos='-10' freq='100' file='data/resultsOfDetectors.xml'/>
	<inductionLoop id='m3_9loop' lane='m3_4' pos='-10' freq='100' file='data/resultsOfDetectors.xml'/>
	<inductionLoop id='m9_0loop' lane='m9_0' pos='-10' freq='100' file='data/resultsOfDetectors.xml'/>
	<inductionLoop id='m9_1loop' lane='m9_1' pos='-10' freq='100' file='data/resultsOfDetectors.xml'/>
	<inductionLoop id='m9_2loop' lane='m9_2' pos='-10' freq='100' file='data/resultsOfDetectors.xml'/>
	<inductionLoop id='m9_3loop' lane='m9_3' pos='-10' freq='100' file='data/resultsOfDetectors.xml'/>
	<inductionLoop id='m9_4loop' lane='m9_4' pos='-10' freq='100' file='data/resultsOfDetectors.xml'/>
	<inductionLoop id='m9_5loop' lane='m9_0' pos='30' freq='100' file='data/resultsOfDetectors.xml'/>
	<inductionLoop id='m9_6loop' lane='m9_1' pos='30' freq='100' file='data/resultsOfDetectors.xml'/>
	<inductionLoop id='m9_7loop' lane='m9_2' pos='30' freq='100' file='data/resultsOfDetectors.xml'/>
	<inductionLoop id='m9_8loop' lane='m9_3' pos='30' freq='100' file='data/resultsOfDetectors.xml'/>
	<inductionLoop id='m9_9loop' lane='m9_4' pos='30' freq='100' file='data/resultsOfDetectors.xml'/>
	<inductionLoop id='m5_0loop' lane='m5_0' pos='-10' freq='100' file='data/resultsOfDetectors.xml'/>
	<inductionLoop id='m5_1loop' lane='m5_1' pos='-10' freq='100' file='data/resultsOfDetectors.xml'/>
	<inductionLoop id='m5_2loop' lane='m5_2' pos='-10' freq='100' file='data/resultsOfDetectors.xml'/>
	<inductionLoop id='m5_3loop' lane='m5_3' pos='-10' freq='100' file='data/resultsOfDetectors.xml'/>
	<inductionLoop id='m5_4loop' lane='m5_4' pos='-10' freq='100' file='data/resultsOfDetectors.xml'/>
	<inductionLoop id='m5_5loop' lane='m5_5' pos='-10' freq='100' file='data/resultsOfDetectors.xml'/>
	<inductionLoop id='m6_0loop' lane='m6_0' pos='-10' freq='100' file='data/resultsOfDetectors.xml'/>
	<inductionLoop id='m6_1loop' lane='m6_1' pos='-10' freq='100' file='data/resultsOfDetectors.xml'/>
	<inductionLoop id='m6_2loop' lane='m6_2' pos='-10' freq='100' file='data/resultsOfDetectors.xml'/>
	<inductionLoop id='m6_3loop' lane='m6_3' pos='-10' freq='100' file='data/resultsOfDetectors.xml'/>
	<inductionLoop id='m6_4loop' lane='m6_4' pos='-10' freq='100' file='data/resultsOfDetectors.xml'/>
	<inductionLoop id='m6_5loop' lane='m6_0' pos='10' freq='100' file='data/resultsOfDetectors.xml'/>
	<inductionLoop id='m6_6loop' lane='m6_1' pos='10' freq='100' file='data/resultsOfDetectors.xml'/>
	<inductionLoop id='m6_7loop' lane='m6_2' pos='10' freq='100' file='data/resultsOfDetectors.xml'/>
	<inductionLoop id='m6_8loop' lane='m6_3' pos='10' freq='100' file='data/resultsOfDetectors.xml'/>
	<inductionLoop id='m6_9loop' lane='m6_4' pos='10' freq='100' file='data/resultsOfDetectors.xml'/>
	<inductionLoop id='m6_10loop' lane='m6_0' pos='50' freq='100' file='data/resultsOfDetectors.xml'/>
	<inductionLoop id='m6_11loop' lane='m6_1' pos='50' freq='100' file='data/resultsOfDetectors.xml'/>
	<inductionLoop id='m6_12loop' lane='m6_2' pos='50' freq='100' file='data/resultsOfDetectors.xml'/>
	<inductionLoop id='m6_13loop' lane='m6_3' pos='50' freq='100' file='data/resultsOfDetectors.xml'/>
	<inductionLoop id='m6_14loop' lane='m6_4' pos='50' freq='100' file='data/resultsOfDetectors.xml'/>
	<inductionLoop id='m6_15loop' lane='m6_0' pos='90' freq='100' file='data/resultsOfDetectors.xml'/>
	<inductionLoop id='m6_16loop' lane='m6_1' pos='90' freq='100' file='data/resultsOfDetectors.xml'/>
	<inductionLoop id='m6_17loop' lane='m6_2' pos='90' freq='100' file='data/resultsOfDetectors.xml'/>
	<inductionLoop id='m6_18loop' lane='m6_3' pos='90' freq='100' file='data/resultsOfDetectors.xml'/>
	<inductionLoop id='m6_19loop' lane='m6_4' pos='90' freq='100' file='data/resultsOfDetectors.xml'/>
	<inductionLoop id='m6_20loop' lane='m6_0' pos='140' freq='100' file='data/resultsOfDetectors.xml'/>
	<inductionLoop id='m6_21loop' lane='m6_1' pos='140' freq='100' file='data/resultsOfDetectors.xml'/>
	<inductionLoop id='m6_22loop' lane='m6_2' pos='140' freq='100' file='data/resultsOfDetectors.xml'/>
	<inductionLoop id='m6_23loop' lane='m6_3' pos='140' freq='100' file='data/resultsOfDetectors.xml'/>
	<inductionLoop id='m6_24loop' lane='m6_4' pos='140' freq='100' file='data/resultsOfDetectors.xml'/>
	<inductionLoop id='m7_0loop' lane='m7_0' pos='10' freq='100' file='data/resultsOfDetectors.xml'/>
	<inductionLoop id='m7_1loop' lane='m7_1' pos='10' freq='100' file='data/resultsOfDetectors.xml'/>
	<inductionLoop id='m7_2loop' lane='m7_2' pos='10' freq='100' file='data/resultsOfDetectors.xml'/>
	<inductionLoop id='m7_3loop' lane='m7_3' pos='10' freq='100' file='data/resultsOfDetectors.xml'/>
	<inductionLoop id='m7_4loop' lane='m7_4' pos='10' freq='100' file='data/resultsOfDetectors.xml'/>
	<inductionLoop id='m7_5loop' lane='m7_5' pos='10' freq='100' file='data/resultsOfDetectors.xml'/>
	<inductionLoop id='m7_6loop' lane='m7_0' pos='-10' freq='100' file='data/resultsOfDetectors.xml'/>
	<inductionLoop id='m7_7loop' lane='m7_1' pos='-10' freq='100' file='data/resultsOfDetectors.xml'/>
	<inductionLoop id='m7_8loop' lane='m7_2' pos='-10' freq='100' file='data/resultsOfDetectors.xml'/>
	<inductionLoop id='m7_9loop' lane='m7_3' pos='-10' freq='100' file='data/resultsOfDetectors.xml'/>
	<inductionLoop id='m7_10loop' lane='m7_4' pos='-10' freq='100' file='data/resultsOfDetectors.xml'/>
	<inductionLoop id='m7_11loop' lane='m7_5' pos='-10' freq='100' file='data/resultsOfDetectors.xml'/>
	<inductionLoop id='m7_12loop' lane='m7_0' pos='40' freq='100' file='data/resultsOfDetectors.xml'/>
	<inductionLoop id='m7_13loop' lane='m7_1' pos='40' freq='100' file='data/resultsOfDetectors.xml'/>
	<inductionLoop id='m7_14loop' lane='m7_2' pos='40' freq='100' file='data/resultsOfDetectors.xml'/>
	<inductionLoop id='m7_15loop' lane='m7_3' pos='40' freq='100' file='data/resultsOfDetectors.xml'/>
	<inductionLoop id='m7_16loop' lane='m7_4' pos='40' freq='100' file='data/resultsOfDetectors.xml'/>
	<inductionLoop id='m7_17loop' lane='m7_5' pos='40' freq='100' file='data/resultsOfDetectors.xml'/>
	<inductionLoop id='m7_18loop' lane='m7_0' pos='70' freq='100' file='data/resultsOfDetectors.xml'/>
	<inductionLoop id='m7_19loop' lane='m7_1' pos='70' freq='100' file='data/resultsOfDetectors.xml'/>
	<inductionLoop id='m7_20loop' lane='m7_2' pos='70' freq='100' file='data/resultsOfDetectors.xml'/>
	<inductionLoop id='m7_21loop' lane='m7_3' pos='70' freq='100' file='data/resultsOfDetectors.xml'/>
	<inductionLoop id='m7_22loop' lane='m7_4' pos='70' freq='100' file='data/resultsOfDetectors.xml'/>
	<inductionLoop id='m7_23loop' lane='m7_5' pos='70' freq='100' file='data/resultsOfDetectors.xml'/>
</additional>