<additional>
	<inductionLoop id='rout1_0loop' lane='rout1_0' pos='10' freq='100' file='data/resultsOfDetectors.xml'/>
	<inductionLoop id='rlight1_0loop' lane='rlight1_0' pos='10' freq='100' file='data/resultsOfDetectors.xml'/>
	<inductionLoop id='rlight1_1loop' lane='rlight1_0' pos='-10' freq='100' file='data/resultsOfDetectors.xml'/>
	<inductionLoop id='m3_0loop' lane='m3_0' pos='10' freq='100' file='data/resultsOfDetectors.xml'/>
	<inductionLoop id='m3_1loop' lane='m3_1' pos='10' freq='100' file='data/resultsOfDetectors.xml'/>
	<inductionLoop id='m3_2loop' lane='m3_2' pos='10' freq='100' file='data/resultsOfDetectors.xml'/>
	<inductionLoop id='m3_3loop' lane='m3_3' pos='10' freq='100' file='data/resultsOfDetectors.xml'/>
	<inductionLoop id='m3_4loop' lane='m3_4' pos='10' freq='100' file='data/resultsOfDetectors.xml'/>
	<inductionLoop id='m9_0loop' lane='m9_0' pos='-10' freq='100' file='data/resultsOfDetectors.xml'/>
	<inductionLoop id='m9_1loop' lane='m9_1' pos='-10' freq='100' file='data/resultsOfDetectors.xml'/>
	<inductionLoop id='m9_2loop' lane='m9_2' pos='-10' freq='100' file='data/resultsOfDetectors.xml'/>
	<inductionLoop id='m9_3loop' lane='m9_3' pos='-10' freq='100' file='data/resultsOfDetectors.xml'/>
	<inductionLoop id='m9_4loop' lane='m9_4' pos='-10' freq='100' file='data/resultsOfDetectors.xml'/>
	<inductionLoop id='m5_0loop' lane='m5_0' pos='-10' freq='100' file='data/resultsOfDetectors.xml'/>
	<inductionLoop id='m5_1loop' lane='m5_1' pos='-10' freq='100' file='data/resultsOfDetectors.xml'/>
	<inductionLoop id='m5_2loop' lane='m5_2' pos='-10' freq='100' file='data/resultsOfDetectors.xml'/>
	<inductionLoop id='m5_3loop' lane='m5_3' pos='-10' freq='100' file='data/resultsOfDetectors.xml'/>
	<inductionLoop id='m5_4loop' lane='m5_4' pos='-10' freq='100' file='data/resultsOfDetectors.xml'/>
	<inductionLoop id='m5_5loop' lane='m5_5' pos='-10' freq='100' file='data/resultsOfDetectors.xml'/>
	<inductionLoop id='m6_0loop' lane='m6_0' pos='-10' freq='100' file='data/resultsOfDetectors.xml'/>
	<inductionLoop id='m6_1loop' lane='m6_1' pos='-10' freq='100' file='data/resultsOfDetectors.xml'/>
	<inductionLoop id='m6_2loop' lane='m6_2' pos='-10' freq='100' file='data/resultsOfDetectors.xml'/>
	<inductionLoop id='m6_3loop' lane='m6_3' pos='-10' freq='100' file='data/resultsOfDetectors.xml'/>
	<inductionLoop id='m6_4loop' lane='m6_4' pos='-10' freq='100' file='data/resultsOfDetectors.xml'/>
	<inductionLoop id='m6_5loop' lane='m6_0' pos='10' freq='100' file='data/resultsOfDetectors.xml'/>
	<inductionLoop id='m6_6loop' lane='m6_1' pos='10' freq='100' file='data/resultsOfDetectors.xml'/>
	<inductionLoop id='m6_7loop' lane='m6_2' pos='10' freq='100' file='data/resultsOfDetectors.xml'/>
	<inductionLoop id='m6_8loop' lane='m6_3' pos='10' freq='100' file='data/resultsOfDetectors.xml'/>
	<inductionLoop id='m6_9loop' lane='m6_4' pos='10' freq='100' file='data/resultsOfDetectors.xml'/>
	<inductionLoop id='m7_0loop' lane='m7_0' pos='10' freq='100' file='data/resultsOfDetectors.xml'/>
	<inductionLoop id='m7_1loop' lane='m7_1' pos='10' freq='100' file='data/resultsOfDetectors.xml'/>
	<inductionLoop id='m7_2loop' lane='m7_2' pos='10' freq='100' file='data/resultsOfDetectors.xml'/>
	<inductionLoop id='m7_3loop' lane='m7_3' pos='10' freq='100' file='data/resultsOfDetectors.xml'/>
	<inductionLoop id='m7_4loop' lane='m7_4' pos='10' freq='100' file='data/resultsOfDetectors.xml'/>
	<inductionLoop id='m7_5loop' lane='m7_5' pos='10' freq='100' file='data/resultsOfDetectors.xml'/>
	<inductionLoop id='m7_6loop' lane='m7_0' pos='-10' freq='100' file='data/resultsOfDetectors.xml'/>
	<inductionLoop id='m7_7loop' lane='m7_1' pos='-10' freq='100' file='data/resultsOfDetectors.xml'/>
	<inductionLoop id='m7_8loop' lane='m7_2' pos='-10' freq='100' file='data/resultsOfDetectors.xml'/>
	<inductionLoop id='m7_9loop' lane='m7_3' pos='-10' freq='100' file='data/resultsOfDetectors.xml'/>
	<inductionLoop id='m7_10loop' lane='m7_4' pos='-10' freq='100' file='data/resultsOfDetectors.xml'/>
	<inductionLoop id='m7_11loop' lane='m7_5' pos='-10' freq='100' file='data/resultsOfDetectors.xml'/>
</additional>